benzene
     RDKit          3D

 12 12  0  0  0  0  0  0  0  0999 V2000
    1.4045   -0.0000    0.0000 C   0  0  0  0  0  0  0  0  0  0  0  0
    0.7022    1.2164    0.0000 C   0  0  0  0  0  0  0  0  0  0  0  0
   -0.7023    1.2164    0.0000 C   0  0  0  0  0  0  0  0  0  0  0  0
   -1.4045   -0.0000    0.0000 C   0  0  0  0  0  0  0  0  0  0  0  0
   -0.7023   -1.2164    0.0000 C   0  0  0  0  0  0  0  0  0  0  0  0
    0.7023   -1.2164    0.0000 C   0  0  0  0  0  0  0  0  0  0  0  0
    2.5079   -0.0000    0.0000 H   0  0  0  0  0  0  0  0  0  0  0  0
    1.2540    2.1720    0.0000 H   0  0  0  0  0  0  0  0  0  0  0  0
   -1.2540    2.1720    0.0000 H   0  0  0  0  0  0  0  0  0  0  0  0
   -2.5079   -0.0000    0.0000 H   0  0  0  0  0  0  0  0  0  0  0  0
   -1.2540   -2.1719    0.0000 H   0  0  0  0  0  0  0  0  0  0  0  0
    1.2540   -2.1720    0.0000 H   0  0  0  0  0  0  0  0  0  0  0  0
  1  2  2  0
  1  6  1  0
  1  7  1  0
  2  3  1  0
  2  8  1  0
  3  4  2  0
  3  9  1  0
  4  5  1  0
  4 10  1  0
  5  6  2  0
  5 11  1  0
  6 12  1  0
M  END

>  <ofe-name>
benzene

>  <atom.dprop.PartialCharge>
-0.13019000614682832 -0.1301299991707007 -0.1301299991707007 -0.1301299991707007 -0.1301299991707007 -0.1301299991707007 0.13014000033338866 0.13014000033338866 0.13014000033338866
0.13014000033338866 0.13014000033338866 0.13014000033338866

$$$$
aniline
     RDKit          3D

 15 15  0  0  0  0  0  0  0  0999 V2000
    1.4045   -0.0000    0.0000 C   0  0  0  0  0  0  0  0  0  0  0  0
    0.7022    1.2164    0.0000 C   0  0  0  0  0  0  0  0  0  0  0  0
   -0.7023    1.2164    0.0000 C   0  0  0  0  0  0  0  0  0  0  0  0
   -1.4045   -0.0000    0.0000 C   0  0  0  0  0  0  0  0  0  0  0  0
   -0.7023   -1.2164    0.0000 C   0  0  0  0  0  0  0  0  0  0  0  0
    0.7023   -1.2164    0.0000 C   0  0  0  0  0  0  0  0  0  0  0  0
    3.2106    0.8251    0.4756 H   0  0  0  0  0  0  0  0  0  0  0  0
    3.2117   -0.8238    0.4772 H   0  0  0  0  0  0  0  0  0  0  0  0
    3.2117   -0.0000   -0.9520 H   0  0  0  0  0  0  0  0  0  0  0  0
    2.8745   -0.0000    0.0000 N   0  0  0  0  0  0  0  0  0  0  0  0
    1.2540    2.1720    0.0000 H   0  0  0  0  0  0  0  0  0  0  0  0
   -1.2540    2.1720    0.0000 H   0  0  0  0  0  0  0  0  0  0  0  0
   -2.5079   -0.0000    0.0000 H   0  0  0  0  0  0  0  0  0  0  0  0
   -1.2540   -2.1719    0.0000 H   0  0  0  0  0  0  0  0  0  0  0  0
    1.2540   -2.1720    0.0000 H   0  0  0  0  0  0  0  0  0  0  0  0
  1  2  2  0
  1  6  1  0
  1 10  1  0
  2  3  1  0
  2 11  1  0
  3  4  2  0
  3 12  1  0
  4  5  1  0
  4 13  1  0
  5  6  2  0
  5 14  1  0
  6 15  1  0
  7 10  1  0
  8 10  1  0
  9 10  1  0
M  CHG  1  10   1
M  END

>  <ofe-name>
aniline

>  <atom.dprop.PartialCharge>
-0.082359999914964038 -0.09780000199874242 -0.098719999690850574 -0.061870001753171283 -0.098719999690850574 -0.09780000199874242 0.46404001067082085 0.46404001067082085
0.46404001067082085 -0.69748002340396242 0.15680000136295955 0.17632999966541926 0.17636999438206355 0.17632999966541926 0.15680000136295955

$$$$
benzoic_acid
     RDKit          3D

 14 14  0  0  0  0  0  0  0  0999 V2000
    1.4045   -0.0000    0.0000 C   0  0  0  0  0  0  0  0  0  0  0  0
    2.7445   -0.0000    0.0000 C   0  0  0  0  0  0  0  0  0  0  0  0
    3.2607   -1.0833    0.0000 O   0  0  0  0  0  0  0  0  0  0  0  0
    0.7022    1.2164    0.0000 C   0  0  0  0  0  0  0  0  0  0  0  0
   -0.7023    1.2164    0.0000 C   0  0  0  0  0  0  0  0  0  0  0  0
    3.4265    1.0159    0.0000 O   0  0  0  0  0  0  0  0  0  0  0  0
   -1.4045   -0.0000    0.0000 C   0  0  0  0  0  0  0  0  0  0  0  0
   -0.7023   -1.2164    0.0000 C   0  0  0  0  0  0  0  0  0  0  0  0
    0.7023   -1.2164    0.0000 C   0  0  0  0  0  0  0  0  0  0  0  0
    1.2540    2.1720    0.0000 H   0  0  0  0  0  0  0  0  0  0  0  0
   -1.2540    2.1720    0.0000 H   0  0  0  0  0  0  0  0  0  0  0  0
   -2.5079   -0.0000    0.0000 H   0  0  0  0  0  0  0  0  0  0  0  0
   -1.2540   -2.1719    0.0000 H   0  0  0  0  0  0  0  0  0  0  0  0
    1.2540   -2.1720    0.0000 H   0  0  0  0  0  0  0  0  0  0  0  0
  1  2  1  0
  1  4  2  0
  1  9  1  0
  2  3  1  0
  2  6  2  0
  4  5  1  0
  4 10  1  0
  5  7  2  0
  5 11  1  0
  7  8  1  0
  7 12  1  0
  8  9  2  0
  8 13  1  0
  9 14  1  0
M  CHG  1   3  -1
M  END

>  <ofe-name>
benzoic_acid

>  <atom.dprop.PartialCharge>
-0.12568999826908112 0.90591001510620117 -0.83410000801086426 -0.10845000296831131 -0.16561999917030334 -0.83410000801086426 -0.16110999882221222 -0.16561999917030334 -0.10845000296831131
0.14900000393390656 0.10098999738693237 0.097249999642372131 0.10098999738693237 0.14900000393390656

$$$$
